198
Lattice="36.99631646207362 0.0 0.0 0.0 12.892075268135791 0.0 0.0 0.0 15.0" Properties=species:S:1:pos:R:3 pbc="T T F"
C       0.61660527       1.43668477       6.00000000 
C       0.61660527       2.86067366       6.00000000 
C       0.61660527       5.73404319       6.00000000 
C       0.61660527       7.15803208       6.00000000 
C       0.61660527      10.03140161       6.00000000 
C       0.61660527      11.45539050       6.00000000 
C       1.84981582       0.72469033       6.00000000 
C       1.84981582       3.57266810       6.00000000 
C       1.84981582       5.02204875       6.00000000 
C       1.84981582       7.87002652       6.00000000 
C       1.84981582       9.31940717       6.00000000 
C       1.84981582      12.16738494       6.00000000 
C       3.08302637       1.43668477       6.00000000 
C       3.08302637       2.86067366       6.00000000 
C       3.08302637       5.73404319       6.00000000 
C       3.08302637       7.15803208       6.00000000 
C       3.08302637      10.03140161       6.00000000 
C       3.08302637      11.45539050       6.00000000 
C       4.31623692       0.72469033       6.00000000 
C       4.31623692       3.57266810       6.00000000 
C       4.31623692       5.02204875       6.00000000 
C       4.31623692       7.87002652       6.00000000 
C       4.31623692       9.31940717       6.00000000 
C       4.31623692      12.16738494       6.00000000 
C       5.54944747       1.43668477       6.00000000 
C       5.54944747       2.86067366       6.00000000 
C       5.54944747       5.73404319       6.00000000 
C       5.54944747       7.15803208       6.00000000 
C       5.54944747      10.03140161       6.00000000 
C       5.54944747      11.45539050       6.00000000 
C       6.78265802       0.72469033       6.00000000 
C       6.78265802       3.57266810       6.00000000 
C       6.78265802       5.02204875       6.00000000 
C       6.78265802       7.87002652       6.00000000 
C       6.78265802       9.31940717       6.00000000 
C       6.78265802      12.16738494       6.00000000 
C       8.01586857       1.43668477       6.00000000 
C       8.01586857       2.86067366       6.00000000 
C       8.01586857       5.73404319       6.00000000 
C       8.01586857       7.15803208       6.00000000 
C       8.01586857      10.03140161       6.00000000 
C       8.01586857      11.45539050       6.00000000 
C       9.24907912       0.72469033       6.00000000 
C       9.24907912       3.57266810       6.00000000 
C       9.24907912       5.02204875       6.00000000 
C       9.24907912       7.87002652       6.00000000 
C       9.24907912       9.31940717       6.00000000 
C       9.24907912      12.16738494       6.00000000 
C      10.48228966       1.43668477       6.00000000 
C      10.48228966       2.86067366       6.00000000 
C      10.48228966       5.73404319       6.00000000 
C      10.48228966       7.15803208       6.00000000 
C      10.48228966      10.03140161       6.00000000 
C      10.48228966      11.45539050       6.00000000 
C      11.71550021       0.72469033       6.00000000 
C      11.71550021       3.57266810       6.00000000 
C      11.71550021       5.02204875       6.00000000 
C      11.71550021       7.87002652       6.00000000 
C      11.71550021       9.31940717       6.00000000 
C      11.71550021      12.16738494       6.00000000 
H      11.99608282       2.31913757       9.00000000 
H      11.99608282       4.84312647       9.00000000 
C      12.94871076       1.43668477       6.00000000 
C      12.94871076       2.86067366       6.00000000 
C      12.94871076       5.73404319       6.00000000 
C      12.94871076       7.15803208       6.00000000 
C      12.94871076      10.03140161       6.00000000 
C      12.94871076      11.45539050       6.00000000 
C      12.94871076       2.86913757       9.00000000 
C      12.94871076       4.29312646       9.00000000 
C      14.18192131       0.72469033       6.00000000 
C      14.18192131       3.57266810       6.00000000 
C      14.18192131       5.02204875       6.00000000 
C      14.18192131       7.87002652       6.00000000 
C      14.18192131       9.31940717       6.00000000 
C      14.18192131      12.16738494       6.00000000 
C      14.18192131       2.15714313       9.00000000 
C      14.18192131       5.00512090       9.00000000 
H      14.18192131       1.05714313       9.00000000 
H      14.18192131       6.10512090       9.00000000 
C      15.41513186       1.43668477       6.00000000 
C      15.41513186       2.86067366       6.00000000 
C      15.41513186       2.86913757       9.00000000 
C      15.41513186       4.29312646       9.00000000 
C      15.41513186       5.73404319       6.00000000 
C      15.41513186       7.15803208       6.00000000 
C      15.41513186      10.03140161       6.00000000 
C      15.41513186      11.45539050       6.00000000 
H      16.36775980       0.88668476       6.00000000 
H      16.36775980       3.41067366       6.00000000 
H      16.36775980       5.18404318       6.00000000 
H      16.36775980       7.70803208       6.00000000 
H      16.36775980       9.48140161       6.00000000 
H      16.36775980      12.00539051       6.00000000 
C      16.64834241       2.15714313       9.00000000 
C      16.64834241       5.00512090       9.00000000 
H      16.64834241       1.05714313       9.00000000 
H      16.64834241       6.10512090       9.00000000 
C      17.88155296       2.86913757       9.00000000 
C      17.88155296       4.29312646       9.00000000 
C      19.11476351       2.15714313       9.00000000 
C      19.11476351       5.00512090       9.00000000 
H      19.11476351       1.05714313       9.00000000 
H      19.11476351       6.10512090       9.00000000 
C      20.34797405       2.86913757       9.00000000 
C      20.34797405       4.29312646       9.00000000 
C      21.58118460       2.15714313       9.00000000 
C      21.58118460       5.00512090       9.00000000 
H      21.58118461       1.05714313       9.00000000 
H      21.58118461       6.10512090       9.00000000 
H      21.86176721       0.88668476       6.00000000 
H      21.86176721       3.41067366       6.00000000 
H      21.86176721       5.18404319       6.00000000 
H      21.86176721       7.70803208       6.00000000 
H      21.86176721       9.48140161       6.00000000 
H      21.86176721      12.00539051       6.00000000 
C      22.81439515       1.43668477       6.00000000 
C      22.81439515       2.86067366       6.00000000 
C      22.81439515       2.86913757       9.00000000 
C      22.81439515       4.29312646       9.00000000 
C      22.81439515       5.73404319       6.00000000 
C      22.81439515       7.15803208       6.00000000 
C      22.81439515      10.03140161       6.00000000 
C      22.81439515      11.45539050       6.00000000 
C      24.04760570       0.72469033       6.00000000 
C      24.04760570       2.15714313       9.00000000 
C      24.04760570       3.57266810       6.00000000 
C      24.04760570       5.00512090       9.00000000 
C      24.04760570       5.02204875       6.00000000 
C      24.04760570       7.87002652       6.00000000 
C      24.04760570       9.31940717       6.00000000 
C      24.04760570      12.16738494       6.00000000 
H      24.04760570       1.05714313       9.00000000 
H      24.04760570       6.10512090       9.00000000 
C      25.28081625       1.43668477       6.00000000 
C      25.28081625       2.86067366       6.00000000 
C      25.28081625       5.73404319       6.00000000 
C      25.28081625       7.15803208       6.00000000 
C      25.28081625      10.03140161       6.00000000 
C      25.28081625      11.45539050       6.00000000 
C      25.28081625       2.86913757       9.00000000 
C      25.28081625       4.29312646       9.00000000 
H      26.23344419       2.31913757       9.00000000 
H      26.23344419       4.84312647       9.00000000 
C      26.51402680       0.72469033       6.00000000 
C      26.51402680       3.57266810       6.00000000 
C      26.51402680       5.02204875       6.00000000 
C      26.51402680       7.87002652       6.00000000 
C      26.51402680       9.31940717       6.00000000 
C      26.51402680      12.16738494       6.00000000 
C      27.74723735       1.43668477       6.00000000 
C      27.74723735       2.86067366       6.00000000 
C      27.74723735       5.73404319       6.00000000 
C      27.74723735       7.15803208       6.00000000 
C      27.74723735      10.03140161       6.00000000 
C      27.74723735      11.45539050       6.00000000 
C      28.98044790       0.72469033       6.00000000 
C      28.98044790       3.57266810       6.00000000 
C      28.98044790       5.02204875       6.00000000 
C      28.98044790       7.87002652       6.00000000 
C      28.98044790       9.31940717       6.00000000 
C      28.98044790      12.16738494       6.00000000 
C      30.21365844       1.43668477       6.00000000 
C      30.21365844       2.86067366       6.00000000 
C      30.21365844       5.73404319       6.00000000 
C      30.21365844       7.15803208       6.00000000 
C      30.21365844      10.03140161       6.00000000 
C      30.21365844      11.45539050       6.00000000 
C      31.44686899       0.72469033       6.00000000 
C      31.44686899       3.57266810       6.00000000 
C      31.44686899       5.02204875       6.00000000 
C      31.44686899       7.87002652       6.00000000 
C      31.44686899       9.31940717       6.00000000 
C      31.44686899      12.16738494       6.00000000 
C      32.68007954       1.43668477       6.00000000 
C      32.68007954       2.86067366       6.00000000 
C      32.68007954       5.73404319       6.00000000 
C      32.68007954       7.15803208       6.00000000 
C      32.68007954      10.03140161       6.00000000 
C      32.68007954      11.45539050       6.00000000 
C      33.91329009       0.72469033       6.00000000 
C      33.91329009       3.57266810       6.00000000 
C      33.91329009       5.02204875       6.00000000 
C      33.91329009       7.87002652       6.00000000 
C      33.91329009       9.31940717       6.00000000 
C      33.91329009      12.16738494       6.00000000 
C      35.14650064       1.43668477       6.00000000 
C      35.14650064       2.86067366       6.00000000 
C      35.14650064       5.73404319       6.00000000 
C      35.14650064       7.15803208       6.00000000 
C      35.14650064      10.03140161       6.00000000 
C      35.14650064      11.45539050       6.00000000 
C      36.37971119       0.72469033       6.00000000 
C      36.37971119       3.57266810       6.00000000 
C      36.37971119       5.02204875       6.00000000 
C      36.37971119       7.87002652       6.00000000 
C      36.37971119       9.31940717       6.00000000 
C      36.37971119      12.16738494       6.00000000 
